
 OpenBabel01282614523D

 17 17  0  0  1  0  0  0  0  0999 V2000
   -5.5179    2.3804    0.3687 C   0  0  0  0  0  0  0  0  0  0  0  0
   -5.0958    3.0216    1.6813 C   0  0  0  0  0  0  0  0  0  0  0  0
   -3.5971    2.9159    1.5511 C   0  0  0  0  0  0  0  0  0  0  0  0
   -4.5885    1.2657    0.1353 N   0  0  0  0  0  0  0  0  0  0  0  0
   -3.4842    1.4643    1.0896 C   0  0  1  0  0  0  0  0  0  0  0  0
   -2.1563    1.0574    0.4900 C   0  0  0  0  0  0  0  0  0  0  0  0
   -2.0185   -0.0910    0.0994 O   0  0  0  0  0  0  0  0  0  0  0  0
   -1.1102    1.9078    0.3809 O   0  0  0  0  0  0  0  0  0  0  0  0
   -1.1299    2.8235    0.6871 H   0  0  0  0  0  0  0  0  0  0  0  0
   -3.6675    0.8187    1.9828 H   0  0  0  0  0  0  0  0  0  0  0  0
   -3.0313    3.1461    2.4790 H   0  0  0  0  0  0  0  0  0  0  0  0
   -3.2745    3.6084    0.7393 H   0  0  0  0  0  0  0  0  0  0  0  0
   -5.4322    2.3810    2.5289 H   0  0  0  0  0  0  0  0  0  0  0  0
   -5.4847    4.0513    1.8302 H   0  0  0  0  0  0  0  0  0  0  0  0
   -5.3583    3.1169   -0.4504 H   0  0  0  0  0  0  0  0  0  0  0  0
   -6.5866    2.0747    0.3561 H   0  0  0  0  0  0  0  0  0  0  0  0
   -5.0598    0.3553    0.3500 H   0  0  0  0  0  0  0  0  0  0  0  0
  1  2  1  0  0  0  0
  1  4  1  0  0  0  0
  1 15  1  0  0  0  0
  1 16  1  0  0  0  0
  2  3  1  0  0  0  0
  2 13  1  0  0  0  0
  2 14  1  0  0  0  0
  3 11  1  0  0  0  0
  3 12  1  0  0  0  0
  4  5  1  0  0  0  0
  4 17  1  0  0  0  0
  5  3  1  0  0  0  0
  5  6  1  0  0  0  0
  5 10  1  1  0  0  0
  6  7  2  0  0  0  0
  6  8  1  0  0  0  0
  8  9  1  0  0  0  0
M  END
