
 OpenBabel01282614533D

 17 17  0  0  1  0  0  0  0  0999 V2000
   -4.9883    1.4456   -0.7601 C   0  0  0  0  0  0  0  0  0  0  0  0
   -4.0740    2.6550   -0.6870 C   0  0  0  0  0  0  0  0  0  0  0  0
   -3.6497    2.5606    0.7584 C   0  0  0  0  0  0  0  0  0  0  0  0
   -4.3091    0.3865   -0.0008 N   0  0  0  0  0  0  0  0  0  0  0  0
   -3.3373    1.0647    0.8751 C   0  0  1  0  0  0  0  0  0  0  0  0
   -1.9411    0.6556    0.4312 C   0  0  0  0  0  0  0  0  0  0  0  0
   -1.6406   -0.5266    0.4860 O   0  0  0  0  0  0  0  0  0  0  0  0
   -1.0094    1.5323   -0.0097 O   0  0  0  0  0  0  0  0  0  0  0  0
   -1.1482    2.4838   -0.0863 H   0  0  0  0  0  0  0  0  0  0  0  0
   -3.4371    0.7476    1.9374 H   0  0  0  0  0  0  0  0  0  0  0  0
   -4.5471    2.7814    1.3821 H   0  0  0  0  0  0  0  0  0  0  0  0
   -2.8509    3.2535    1.0937 H   0  0  0  0  0  0  0  0  0  0  0  0
   -4.5662    3.6103   -0.9671 H   0  0  0  0  0  0  0  0  0  0  0  0
   -3.1950    2.4915   -1.3484 H   0  0  0  0  0  0  0  0  0  0  0  0
   -5.2189    1.1382   -1.8015 H   0  0  0  0  0  0  0  0  0  0  0  0
   -5.9468    1.6972   -0.2473 H   0  0  0  0  0  0  0  0  0  0  0  0
   -5.0118   -0.1496    0.5606 H   0  0  0  0  0  0  0  0  0  0  0  0
  1  2  1  0  0  0  0
  1  4  1  0  0  0  0
  1 15  1  0  0  0  0
  1 16  1  0  0  0  0
  2  3  1  0  0  0  0
  2 13  1  0  0  0  0
  2 14  1  0  0  0  0
  3 11  1  0  0  0  0
  3 12  1  0  0  0  0
  4  5  1  0  0  0  0
  4 17  1  0  0  0  0
  5  3  1  0  0  0  0
  5  6  1  0  0  0  0
  5 10  1  1  0  0  0
  6  7  2  0  0  0  0
  6  8  1  0  0  0  0
  8  9  1  0  0  0  0
M  END
